MODEL 1
REMARK VINA RESULT:     -11.8      0.000      0.000
REMARK  6 active torsions:
REMARK  status: ('A' for Active; 'I' for Inactive)
REMARK    1  A    between atoms: C1_1  and  O25_11 
REMARK    2  A    between atoms: C2_2  and  O27_13 
REMARK    3  A    between atoms: C8_8  and  C10_15 
REMARK    4  A    between atoms: C10_15  and  C11_16 
REMARK    5  A    between atoms: N14_19  and  C17_22 
REMARK    6  A    between atoms: C17_22  and  C18_23 
ROOT
ATOM      1  C1  E20 A 604     -18.545 -42.148  24.059  0.00  0.00     0.102 A 
ATOM      2  C2  E20 A 604     -18.961 -41.960  25.363  0.00  0.00     0.102 A 
ATOM      3  C3  E20 A 604     -18.101 -42.231  26.426  0.00  0.00     0.047 A 
ATOM      4  C4  E20 A 604     -16.802 -42.704  26.168  0.00  0.00    -0.041 A 
ATOM      5  C5  E20 A 604     -16.378 -42.907  24.873  0.00  0.00     0.019 A 
ATOM      6  C6  E20 A 604     -17.257 -42.624  23.800  0.00  0.00     0.055 A 
ATOM      7  C7  E20 A 604     -14.975 -43.403  24.852  0.00  0.00     0.164 A 
ATOM      8  C8  E20 A 604     -14.492 -43.534  26.284  0.00  0.00     0.065 A 
ATOM      9  C9  E20 A 604     -15.682 -43.076  27.130  0.00  0.00     0.052 A 
ATOM     10  O24 E20 A 604     -14.310 -43.643  23.821  0.00  0.00    -0.292 OA
ENDROOT
BRANCH   8  11
ATOM     11  C10 E20 A 604     -13.968 -44.930  26.626  0.00  0.00     0.017 C 
BRANCH  11  12
ATOM     12  C11 E20 A 604     -12.987 -44.921  27.818  0.00  0.00    -0.011 C 
ATOM     13  C12 E20 A 604     -13.664 -44.990  29.152  0.00  0.00     0.024 C 
ATOM     14  C13 E20 A 604     -12.729 -45.098  30.328  0.00  0.00     0.117 C 
ATOM     15  N14 E20 A 604     -11.690 -46.132  30.197  0.00  0.00    -0.408 N 
ATOM     16  C15 E20 A 604     -11.058 -46.049  28.877  0.00  0.00     0.117 C 
ATOM     17  C16 E20 A 604     -12.055 -46.118  27.757  0.00  0.00     0.024 C 
BRANCH  15  18
ATOM     18  C17 E20 A 604     -10.920 -46.484  31.386  0.00  0.00     0.155 C 
BRANCH  18  19
ATOM     19  C18 E20 A 604      -9.695 -45.595  31.548  0.00  0.00    -0.041 A 
ATOM     20  C19 E20 A 604      -8.410 -46.079  31.239  0.00  0.00     0.009 A 
ATOM     21  C20 E20 A 604      -7.285 -45.260  31.392  0.00  0.00     0.001 A 
ATOM     22  C21 E20 A 604      -7.441 -43.948  31.850  0.00  0.00     0.000 A 
ATOM     23  C22 E20 A 604      -8.725 -43.460  32.164  0.00  0.00     0.001 A 
ATOM     24  C23 E20 A 604      -9.845 -44.275  32.009  0.00  0.00     0.009 A 
ENDBRANCH  18  19
ENDBRANCH  15  18
ENDBRANCH  11  12
ENDBRANCH   8  11
BRANCH   1  25
ATOM     25  O25 E20 A 604     -19.416 -41.867  23.031  0.00  0.00    -0.353 OA
ATOM     26  C26 E20 A 604     -19.134 -40.919  22.082  0.00  0.00     0.210 C 
ENDBRANCH   1  25
BRANCH   2  27
ATOM     27  O27 E20 A 604     -20.247 -41.470  25.615  0.00  0.00    -0.353 OA
ATOM     28  C28 E20 A 604     -20.616 -41.204  26.940  0.00  0.00     0.210 C 
ENDBRANCH   2  27
TORSDOF 6
ENDMDL
MODEL 2
REMARK VINA RESULT:      -9.7      3.470     10.448
REMARK  6 active torsions:
REMARK  status: ('A' for Active; 'I' for Inactive)
REMARK    1  A    between atoms: C1_1  and  O25_11 
REMARK    2  A    between atoms: C2_2  and  O27_13 
REMARK    3  A    between atoms: C8_8  and  C10_15 
REMARK    4  A    between atoms: C10_15  and  C11_16 
REMARK    5  A    between atoms: N14_19  and  C17_22 
REMARK    6  A    between atoms: C17_22  and  C18_23 
ROOT
ATOM      1  C1  E20 A 604      -8.948 -44.010  30.832  0.00  0.00     0.102 A 
ATOM      2  C2  E20 A 604      -9.009 -45.389  30.901  0.00  0.00     0.102 A 
ATOM      3  C3  E20 A 604      -9.858 -46.102  30.057  0.00  0.00     0.047 A 
ATOM      4  C4  E20 A 604     -10.662 -45.411  29.131  0.00  0.00    -0.041 A 
ATOM      5  C5  E20 A 604     -10.619 -44.036  29.061  0.00  0.00     0.019 A 
ATOM      6  C6  E20 A 604      -9.750 -43.321  29.919  0.00  0.00     0.055 A 
ATOM      7  C7  E20 A 604     -11.548 -43.536  28.011  0.00  0.00     0.164 A 
ATOM      8  C8  E20 A 604     -12.247 -44.728  27.383  0.00  0.00     0.065 A 
ATOM      9  C9  E20 A 604     -11.663 -45.939  28.113  0.00  0.00     0.052 A 
ATOM     10  O24 E20 A 604     -11.700 -42.336  27.693  0.00  0.00    -0.292 OA
ENDROOT
BRANCH   8  11
ATOM     11  C10 E20 A 604     -13.772 -44.633  27.424  0.00  0.00     0.017 C 
BRANCH  11  12
ATOM     12  C11 E20 A 604     -14.348 -43.796  26.262  0.00  0.00    -0.011 C 
ATOM     13  C12 E20 A 604     -14.561 -44.581  25.004  0.00  0.00     0.024 C 
ATOM     14  C13 E20 A 604     -15.227 -43.818  23.890  0.00  0.00     0.117 C 
ATOM     15  N14 E20 A 604     -16.444 -43.091  24.283  0.00  0.00    -0.408 N 
ATOM     16  C15 E20 A 604     -16.209 -42.346  25.523  0.00  0.00     0.117 C 
ATOM     17  C16 E20 A 604     -15.703 -43.221  26.632  0.00  0.00     0.024 C 
BRANCH  15  18
ATOM     18  C17 E20 A 604     -17.292 -42.553  23.223  0.00  0.00     0.155 C 
BRANCH  18  19
ATOM     19  C18 E20 A 604     -18.578 -41.956  23.779  0.00  0.00    -0.041 A 
ATOM     20  C19 E20 A 604     -18.957 -42.185  25.115  0.00  0.00     0.009 A 
ATOM     21  C20 E20 A 604     -20.142 -41.637  25.622  0.00  0.00     0.001 A 
ATOM     22  C21 E20 A 604     -20.951 -40.852  24.796  0.00  0.00     0.000 A 
ATOM     23  C22 E20 A 604     -20.577 -40.624  23.456  0.00  0.00     0.001 A 
ATOM     24  C23 E20 A 604     -19.396 -41.167  22.952  0.00  0.00     0.009 A 
ENDBRANCH  18  19
ENDBRANCH  15  18
ENDBRANCH  11  12
ENDBRANCH   8  11
BRANCH   1  25
ATOM     25  O25 E20 A 604      -8.096 -43.334  31.677  0.00  0.00    -0.353 OA
ATOM     26  C26 E20 A 604      -8.421 -43.084  32.984  0.00  0.00     0.210 C 
ENDBRANCH   1  25
BRANCH   2  27
ATOM     27  O27 E20 A 604      -8.193 -46.073  31.808  0.00  0.00    -0.353 OA
ATOM     28  C28 E20 A 604      -6.812 -46.105  31.577  0.00  0.00     0.210 C 
ENDBRANCH   2  27
TORSDOF 6
ENDMDL
